Version 4
SHEET 1 880 680
WIRE 224 -112 32 -112
WIRE 416 -112 224 -112
WIRE 224 -96 224 -112
WIRE 416 -16 416 -32
WIRE 32 0 32 -32
WIRE 32 112 32 80
WIRE 112 112 32 112
WIRE 416 112 416 64
WIRE 416 112 304 112
WIRE 416 176 304 176
WIRE 112 208 32 208
WIRE 320 208 304 208
WIRE 416 208 416 176
WIRE 416 208 400 208
WIRE 32 288 32 208
WIRE 416 288 416 208
FLAG 416 288 0
FLAG 32 288 0
FLAG 224 -96 0
SYMBOL Optos\\4N28 208 176 R0
SYMATTR InstName U1
SYMBOL voltage 32 -16 R180
WINDOW 0 24 96 Left 2
WINDOW 3 24 16 Left 2
WINDOW 123 0 0 Left 0
WINDOW 39 0 0 Left 0
SYMATTR InstName V1
SYMATTR Value 5
SYMBOL voltage 416 -16 R180
WINDOW 0 24 96 Left 2
WINDOW 3 24 16 Left 2
WINDOW 123 0 0 Left 0
WINDOW 39 0 0 Left 0
SYMATTR InstName V2
SYMATTR Value 5
SYMBOL res 416 192 R90
WINDOW 0 0 56 VBottom 2
WINDOW 3 32 56 VTop 2
SYMATTR InstName R1
SYMATTR Value 270
SYMBOL res 16 -16 R0
SYMATTR InstName R2
SYMATTR Value 240
SYMBOL res 400 -32 R0
SYMATTR InstName R3
SYMATTR Value 1k
TEXT -16 312 Left 2 !.tran 10m
